Program Version,EnergyPlus, Version 23.1.0-87ed9199d4, YMD=2024.04.16 15:11,
   ************* Beginning Zone Sizing Calculations
   ** Warning ** Weather file location will be used rather than entered (IDF) Location object.
   **   ~~~   ** ..Location object=SHANGHAI
   **   ~~~   ** ..Weather File Location=Beijing Beijing CHN CSWD WMO#=545110
   **   ~~~   ** ..due to location differences, Latitude difference=[8.40] degrees, Longitude difference=[4.98] degrees.
   **   ~~~   ** ..Time Zone difference=[0.0] hour(s), Elevation difference=[469.09] percent, [25.80] meters.
   ** Warning ** For Schedule:File="FLOW RATE SCHEDULE", Blank Schedule Type Limits Name input -- will not be validated.
   ** Warning ** GetSurfaceData: Construction PFWALLWITHPAINT of interzone surface ZONE0 SURFACE ROOF does not have the same materials in the reverse order as the construction PFWALLWITHPAINT of adjacent surface ZONE1 SURFACE FLOOR
   **   ~~~   ** or the properties of the reversed layers are not correct due to differing layer front and back side values
   **   ~~~   ** ...but Nominal U values are similar, diff=[0.0000] ... simulation proceeds.
   **   ~~~   ** ...if the two zones are expected to have significantly different temperatures, the proper "reverse" construction should be created.
   **   ~~~   ** ...this problem for this pair will not be reported again.
   ************* Testing Individual Branch Integrity
   ************* All Branches passed integrity testing
   ************* Testing Individual Supply Air Path Integrity
   ************* All Supply Air Paths passed integrity testing
   ************* Testing Individual Return Air Path Integrity
   ************* All Return Air Paths passed integrity testing
   ************* No node connection errors were found.
   ************* Beginning Simulation
   ************* Simulation Error Summary *************
   ************* There are 4 unused schedules in input.
   ************* There are 368 unused week schedules in input.
   ************* There are 368 unused day schedules in input.
   ************* Use Output:Diagnostics,DisplayUnusedSchedules; to see them.
   ************* EnergyPlus Warmup Error Summary. During Warmup: 0 Warning; 0 Severe Errors.
   ************* EnergyPlus Sizing Error Summary. During Sizing: 3 Warning; 0 Severe Errors.
   ************* EnergyPlus Completed Successfully-- 3 Warning; 0 Severe Errors; Elapsed Time=00hr 00min  1.92sec
